[General]
sim-time-limit=1000s
network=Show