[General]
sim-time-limit=3000s
network=Show